Circuit: * C:\Users\ethan\OneDrive\Documents\GitHub\Sensor\sensor_test\Sensor_test.asc

Direct Newton iteration for .op point succeeded.

Date: Sat Apr 03 11:01:59 2021
Total elapsed time: 0.132 seconds.

tnom = 27
temp = 27
method = modified trap
totiter = 2116
traniter = 2088
tranpoints = 1045
accept = 1045
rejected = 0
matrix size = 60
fillins = 40
solver = Normal
Matrix Compiler1: 4.47 KB object code size  0.8/0.4/[0.2]
Matrix Compiler2: 5.10 KB object code size  0.3/0.6/[0.3]

